Version 4
SHEET 1 880 680
WIRE 192 80 192 64
WIRE 288 80 192 80
WIRE 448 96 416 96
WIRE 624 96 592 96
WIRE 288 112 192 112
WIRE 192 144 192 112
FLAG 192 224 0
FLAG 144 48 Vin
IOPIN 144 48 In
FLAG 624 96 Vout
IOPIN 624 96 Out
FLAG 144 0 0
FLAG 192 -16 0
SYMBOL expamp 512 96 R0
SYMATTR InstName Exp
SYMBOL voltage 192 128 R0
WINDOW 123 0 0 Left 0
WINDOW 39 0 0 Left 0
SYMATTR InstName V1
SYMATTR Value -180m
SYMBOL adder 352 96 R0
SYMATTR InstName Adder
SYMBOL e 192 80 M180
SYMATTR InstName E1
SYMATTR Value 30m
TEXT 336 208 Left 2 ;Vout=30mV * exp(6-Vin/1V)
