Version 4
SHEET 1 880 680
WIRE -48 -112 -80 -112
WIRE -16 -112 -48 -112
WIRE -48 -80 -48 -112
WIRE 384 -32 304 -32
WIRE 400 -32 384 -32
WIRE 304 0 304 -32
WIRE 304 0 224 0
WIRE 384 64 384 48
WIRE 384 64 224 64
WIRE 384 80 384 64
WIRE 304 96 224 96
WIRE 304 160 304 96
WIRE 384 160 304 160
WIRE -160 256 -160 -112
WIRE -48 256 -48 240
WIRE -48 256 -160 256
WIRE -48 272 -48 256
FLAG -48 80 Iref
FLAG 144 80 Iref
FLAG 144 112 0
FLAG 144 48 Input
IOPIN 144 48 In
FLAG -48 272 Vref
FLAG 224 224 Vref
FLAG 144 16 0
FLAG 48 416 0
FLAG 128 416 0
FLAG 48 336 +V
FLAG 128 336 -V
FLAG 144 144 -V
FLAG 144 208 +V
FLAG 144 176 0
FLAG 64 -112 0
FLAG -48 -80 +In4
FLAG 224 32 +In4
FLAG 400 -32 Vlogout
IOPIN 400 -32 Out
FLAG 384 64 -In4
FLAG 304 96 VO4
SYMBOL AutoGenerated\\LOG114 176 112 R0
SYMATTR InstName LogAmp
SYMBOL current -48 160 R180
WINDOW 0 24 80 Left 2
WINDOW 3 24 0 Left 2
WINDOW 123 0 0 Left 0
WINDOW 39 0 0 Left 0
SYMATTR InstName Iref
SYMATTR Value 1µ
SYMBOL res -64 144 R0
SYMATTR InstName Rref
SYMATTR Value 2500k
SYMBOL voltage 48 320 R0
WINDOW 123 0 0 Left 0
WINDOW 39 0 0 Left 0
SYMATTR InstName V1
SYMATTR Value 5
SYMBOL voltage 128 320 R0
WINDOW 123 0 0 Left 0
WINDOW 39 0 0 Left 0
SYMATTR InstName V2
SYMATTR Value -5
SYMBOL res -64 -128 R90
WINDOW 0 0 56 VBottom 2
WINDOW 3 32 56 VTop 2
SYMATTR InstName R7
SYMATTR Value 100k
SYMBOL res 80 -128 R90
WINDOW 0 0 56 VBottom 2
WINDOW 3 32 56 VTop 2
SYMATTR InstName R8
SYMATTR Value 56.2k
SYMBOL res 368 -48 R0
SYMATTR InstName R5
SYMATTR Value 100k
SYMBOL res 368 64 R0
SYMATTR InstName R6
SYMATTR Value 66.5k
TEXT 232 352 Left 2 !.opt temp=25
