Version 4
SHEET 1 1492 1368
WIRE 640 16 592 16
WIRE 800 32 768 32
WIRE 640 48 624 48
WIRE 336 128 320 128
WIRE 800 128 800 32
WIRE 832 128 800 128
WIRE 192 144 160 144
WIRE 640 144 528 144
WIRE 992 144 944 144
WIRE 336 160 320 160
WIRE 832 160 768 160
WIRE 192 176 160 176
WIRE 640 176 624 176
WIRE 336 192 320 192
WIRE 192 208 160 208
WIRE 368 224 320 224
WIRE 496 224 480 224
WIRE 528 224 528 144
WIRE 528 224 496 224
WIRE 528 256 528 224
WIRE 640 256 528 256
WIRE 800 272 768 272
WIRE 640 288 624 288
WIRE 528 368 528 256
WIRE 640 368 528 368
WIRE 1136 384 752 384
WIRE 368 400 352 400
WIRE 640 400 368 400
WIRE 1136 448 1136 384
WIRE 1168 448 1136 448
WIRE 848 464 832 464
WIRE 1312 464 1296 464
WIRE 528 480 528 368
WIRE 640 480 528 480
WIRE 1104 480 1024 480
WIRE 1168 480 1104 480
WIRE 784 496 752 496
WIRE 848 496 784 496
WIRE 368 512 368 400
WIRE 384 512 368 512
WIRE 640 512 496 512
WIRE 1136 560 1136 448
WIRE 1168 560 1136 560
WIRE 848 576 832 576
WIRE 1312 576 1296 576
WIRE 1072 592 1024 592
WIRE 1168 592 1072 592
WIRE 784 608 784 496
WIRE 848 608 784 608
WIRE 176 656 176 640
WIRE 272 656 272 640
WIRE 368 656 368 640
WIRE 1136 672 1136 560
WIRE 1168 672 1136 672
WIRE 848 688 832 688
WIRE 1312 688 1296 688
WIRE 1040 704 1024 704
WIRE 1168 704 1040 704
WIRE 784 720 784 608
WIRE 848 720 784 720
WIRE 1104 768 1104 480
WIRE 1296 768 1104 768
WIRE 1072 800 1072 592
WIRE 1296 800 1072 800
WIRE 1040 832 1040 704
WIRE 1296 832 1040 832
FLAG 160 144 V1
IOPIN 160 144 In
FLAG 160 176 V2
IOPIN 160 176 In
FLAG 160 208 V3
IOPIN 160 208 In
FLAG 352 400 xs
IOPIN 352 400 In
FLAG 624 176 gamma
FLAG 992 144 dxs
IOPIN 992 144 Out
FLAG 800 272 dxl
IOPIN 800 272 Out
FLAG 336 128 b1
FLAG 336 160 b2
FLAG 336 192 b3
FLAG 832 464 b1
FLAG 832 576 b2
FLAG 832 688 b3
FLAG 1312 464 dV1
IOPIN 1312 464 Out
FLAG 1312 576 dV2
IOPIN 1312 576 Out
FLAG 1312 688 dV3
IOPIN 1312 688 Out
FLAG 176 736 0
FLAG 272 736 0
FLAG 176 640 gamma
FLAG 272 640 -lambda
FLAG 592 16 xs
IOPIN 592 16 In
FLAG 368 736 0
FLAG 368 640 epsilon
FLAG 624 48 epsilon
FLAG 1296 768 R1
IOPIN 1296 768 Out
FLAG 1296 800 R2
IOPIN 1296 800 Out
FLAG 1296 832 R3
IOPIN 1296 832 Out
FLAG 624 288 -lambda
FLAG 496 224 C
SYMBOL comparator 256 176 R0
SYMATTR InstName Comparator
SYMBOL subtractor 704 160 R0
SYMATTR InstName Subtractor1
SYMBOL subtractor 704 272 R0
SYMATTR InstName Subtractor2
SYMBOL voltage 176 640 R0
WINDOW 123 0 0 Left 0
WINDOW 39 0 0 Left 0
SYMATTR InstName V1
SYMATTR Value 0.25
SYMBOL voltage 272 640 R0
WINDOW 123 0 0 Left 0
WINDOW 39 0 0 Left 0
SYMATTR InstName V2
SYMATTR Value -0.1
SYMBOL multiplier 688 384 R0
SYMATTR InstName Multiplier1
SYMBOL multiplier 688 496 R0
SYMATTR InstName Multiplier2
SYMBOL bidirectional_switch_amplified 928 480 R0
SYMATTR InstName Switch1
SYMBOL bidirectional_switch_amplified 928 592 R0
SYMATTR InstName Switch2
SYMBOL bidirectional_switch_amplified 928 704 R0
SYMATTR InstName Switch3
SYMBOL adder 704 32 R0
SYMATTR InstName Adder4
SYMBOL voltage 368 640 R0
WINDOW 123 0 0 Left 0
WINDOW 39 0 0 Left 0
SYMATTR InstName V3
SYMATTR Value 0.001
SYMBOL multiplier 880 144 R0
SYMATTR InstName Multiplier5
SYMBOL adder_zeta 1232 464 R0
SYMATTR InstName Adder_zeta1
SYMBOL adder_zeta 1232 576 R0
SYMATTR InstName Adder_zeta2
SYMBOL adder_zeta 1232 688 R0
SYMATTR InstName Adder_zeta3
SYMBOL one_minus_v 416 224 R0
SYMATTR InstName 1-V
SYMBOL one_minus_v 432 512 R0
SYMATTR InstName 1-xs
