Version 4
SHEET 1 880 680
WIRE 288 -16 208 -16
WIRE 288 16 208 16
WIRE 288 48 208 48
WIRE 240 80 208 80
WIRE 224 112 208 112
WIRE 96 144 80 144
WIRE 288 144 208 144
WIRE 288 176 208 176
WIRE 288 208 208 208
WIRE 80 288 80 144
WIRE 96 288 80 288
WIRE 224 288 224 112
WIRE 224 288 208 288
WIRE 240 368 240 80
WIRE 240 368 208 368
FLAG 96 48 V1
IOPIN 96 48 In
FLAG 96 80 V2
IOPIN 96 80 In
FLAG 96 112 V3
IOPIN 96 112 In
FLAG 96 368 xl
IOPIN 96 368 Out
FLAG 288 -16 dV1
IOPIN 288 -16 Out
FLAG 288 16 dV2
IOPIN 288 16 Out
FLAG 288 48 dV3
IOPIN 288 48 Out
FLAG 288 144 R1
IOPIN 288 144 Out
FLAG 288 176 R2
IOPIN 288 176 Out
FLAG 288 208 R3
IOPIN 288 208 Out
SYMBOL self_organizing_OR_softmax 144 96 R0
SYMATTR InstName SOLG
SYMBOL xl_softmax 160 368 M0
SYMATTR InstName xl
SYMBOL xs 160 288 M0
SYMATTR InstName xs
