Version 4
SHEET 1 880 680
FLAG 304 144 V+
IOPIN 304 144 In
FLAG 304 192 V-
IOPIN 304 192 In
FLAG 352 128 Vout
IOPIN 352 128 Out
FLAG 352 208 0
SYMBOL e 352 112 R0
SYMATTR InstName E1
SYMATTR Value 1
