Version 4
SHEET 1 1076 1176
WIRE -496 -304 -512 -304
WIRE -224 -304 -240 -304
WIRE -496 -272 -512 -272
WIRE -224 -272 -240 -272
WIRE -496 -240 -512 -240
WIRE -224 -240 -240 -240
WIRE 272 -240 272 -272
WIRE 304 -240 272 -240
WIRE 752 -240 608 -240
WIRE 608 -224 608 -240
WIRE -496 -208 -512 -208
WIRE -224 -208 -240 -208
WIRE 192 -208 192 -272
WIRE 304 -208 192 -208
WIRE 560 -208 496 -208
WIRE -496 -176 -512 -176
WIRE -224 -176 -240 -176
WIRE 304 -176 128 -176
WIRE -496 -144 -512 -144
WIRE -224 -144 -240 -144
WIRE -496 -112 -512 -112
WIRE -224 -112 -240 -112
WIRE -496 -80 -512 -80
WIRE -224 -80 -240 -80
WIRE -496 -48 -512 -48
WIRE -224 -48 -240 -48
WIRE 272 -32 272 -64
WIRE 304 -32 272 -32
WIRE 752 -32 752 -240
WIRE 752 -32 608 -32
WIRE -496 -16 -512 -16
WIRE -224 -16 -240 -16
WIRE 608 -16 608 -32
WIRE 192 0 192 -64
WIRE 304 0 192 0
WIRE 560 0 496 0
WIRE 304 32 128 32
WIRE -496 64 -512 64
WIRE -224 64 -240 64
WIRE -496 96 -512 96
WIRE -224 96 -240 96
WIRE 752 96 752 -32
WIRE 752 96 336 96
WIRE -496 128 -512 128
WIRE -224 128 -240 128
WIRE 16 144 -16 144
WIRE 144 144 128 144
WIRE -496 160 -512 160
WIRE -224 160 -240 160
WIRE 528 160 480 160
WIRE 144 176 144 144
WIRE 240 176 144 176
WIRE 688 176 592 176
WIRE -496 192 -512 192
WIRE -224 192 -240 192
WIRE 336 192 336 96
WIRE 336 192 288 192
WIRE 480 192 336 192
WIRE 528 192 480 192
WIRE 144 208 144 176
WIRE 144 208 128 208
WIRE -496 224 -512 224
WIRE -224 224 -240 224
WIRE 336 224 336 192
WIRE 400 224 336 224
WIRE 336 240 336 224
WIRE -496 256 -512 256
WIRE -224 256 -240 256
WIRE -496 288 -512 288
WIRE -224 288 -240 288
WIRE 400 304 336 304
WIRE -496 320 -512 320
WIRE -224 320 -240 320
WIRE 336 320 336 304
WIRE 480 320 480 192
WIRE 528 320 480 320
WIRE 688 336 592 336
WIRE -496 352 -512 352
WIRE -224 352 -240 352
WIRE 528 352 480 352
FLAG 336 320 0
FLAG 688 176 ctrl-
FLAG 688 336 ctrl+
FLAG 480 160 0
FLAG 128 208 V
IOPIN 128 208 Out
FLAG -16 144 Vbar
IOPIN -16 144 Out
FLAG 272 -64 ctrl+
FLAG 192 -64 ctrl-
FLAG 560 48 0
FLAG 608 64 0
FLAG -496 496 +xl0
IOPIN -496 496 In
FLAG -496 528 +xl1
IOPIN -496 528 In
FLAG -496 560 +xl2
IOPIN -496 560 In
FLAG -496 592 +xl3
IOPIN -496 592 In
FLAG -496 624 +xl4
IOPIN -496 624 In
FLAG -496 656 +xl5
IOPIN -496 656 In
FLAG -496 688 +xl6
IOPIN -496 688 In
FLAG -496 720 +xl7
IOPIN -496 720 In
FLAG -496 752 +xl8
IOPIN -496 752 In
FLAG -496 784 +xl9
IOPIN -496 784 In
FLAG -496 816 -xl0
IOPIN -496 816 In
FLAG -496 848 -xl1
IOPIN -496 848 In
FLAG -496 880 -xl2
IOPIN -496 880 In
FLAG -496 912 -xl3
IOPIN -496 912 In
FLAG -496 944 -xl4
IOPIN -496 944 In
FLAG -496 976 -xl5
IOPIN -496 976 In
FLAG -496 1008 -xl6
IOPIN -496 1008 In
FLAG -496 1040 -xl7
IOPIN -496 1040 In
FLAG -496 1072 -xl8
IOPIN -496 1072 In
FLAG -496 1104 -xl9
IOPIN -496 1104 In
FLAG -368 496 +s0
FLAG -368 528 +s1
FLAG -368 560 +s2
FLAG -368 592 +s3
FLAG -368 624 +s4
FLAG -368 656 +s5
FLAG -368 688 +s6
FLAG -368 720 +s7
FLAG -368 752 +s8
FLAG -368 784 +s9
FLAG -368 816 -s0
FLAG -368 848 -s1
FLAG -368 880 -s2
FLAG -368 912 -s3
FLAG -368 944 -s4
FLAG -368 976 -s5
FLAG -368 1008 -s6
FLAG -368 1040 -s7
FLAG -368 1072 -s8
FLAG -368 1104 -s9
FLAG -176 512 +s0
FLAG -176 624 +s1
FLAG -176 736 +s2
FLAG -176 848 +s3
FLAG -176 960 +s4
FLAG 96 512 +s5
FLAG 96 624 +s6
FLAG 96 736 +s7
FLAG 96 848 +s8
FLAG 96 960 +s9
FLAG 368 512 -s0
FLAG 368 624 -s1
FLAG 368 736 -s2
FLAG 368 848 -s3
FLAG 368 960 -s4
FLAG 640 512 -s5
FLAG 640 624 -s6
FLAG 640 736 -s7
FLAG 640 848 -s8
FLAG 640 960 -s9
FLAG -176 544 +V0
IOPIN -176 544 In
FLAG -176 656 +V1
IOPIN -176 656 In
FLAG -176 768 +V2
IOPIN -176 768 In
FLAG -176 880 +V3
IOPIN -176 880 In
FLAG -176 992 +V4
IOPIN -176 992 In
FLAG 96 544 +V5
IOPIN 96 544 In
FLAG 96 656 +V6
IOPIN 96 656 In
FLAG 96 768 +V7
IOPIN 96 768 In
FLAG 96 880 +V8
IOPIN 96 880 In
FLAG 96 992 +V9
IOPIN 96 992 In
FLAG 368 544 -V0
IOPIN 368 544 In
FLAG 368 656 -V1
IOPIN 368 656 In
FLAG 368 768 -V2
IOPIN 368 768 In
FLAG 368 880 -V3
IOPIN 368 880 In
FLAG 368 992 -V4
IOPIN 368 992 In
FLAG 640 544 -V5
IOPIN 640 544 In
FLAG 640 656 -V6
IOPIN 640 656 In
FLAG 640 768 -V7
IOPIN 640 768 In
FLAG 640 880 -V8
IOPIN 640 880 In
FLAG 640 992 -V9
IOPIN 640 992 In
FLAG -64 528 +g0
FLAG -64 640 +g1
FLAG -64 752 +g2
FLAG -64 864 +g3
FLAG -64 976 +g4
FLAG 208 528 +g5
FLAG 208 640 +g6
FLAG 208 752 +g7
FLAG 208 864 +g8
FLAG 208 976 +g9
FLAG 480 528 -g0
FLAG 480 640 -g1
FLAG 480 752 -g2
FLAG 480 864 -g3
FLAG 480 976 -g4
FLAG 752 528 -g5
FLAG 752 640 -g6
FLAG 752 752 -g7
FLAG 752 864 -g8
FLAG 752 976 -g9
FLAG -512 64 +g0
FLAG -512 96 +g1
FLAG -512 128 +g2
FLAG -512 160 +g3
FLAG -512 192 +g4
FLAG -512 224 +g5
FLAG -512 256 +g6
FLAG -512 288 +g7
FLAG -512 320 +g8
FLAG -512 352 +g9
FLAG -512 -304 -g0
FLAG -512 -272 -g1
FLAG -512 -240 -g2
FLAG -512 -208 -g3
FLAG -512 -176 -g4
FLAG -512 -144 -g5
FLAG -512 -112 -g6
FLAG -512 -80 -g7
FLAG -512 -48 -g8
FLAG -512 -16 -g9
FLAG 272 -272 ctrl+
FLAG 192 -272 ctrl-
FLAG 560 -160 0
FLAG 608 -144 0
FLAG -368 208 G+
FLAG 0 48 G+
FLAG -368 -160 G-
FLAG 0 16 G-
FLAG -240 64 +R0
IOPIN -240 64 In
FLAG -240 96 +R1
IOPIN -240 96 In
FLAG -240 128 +R2
IOPIN -240 128 In
FLAG -240 160 +R3
IOPIN -240 160 In
FLAG -240 192 +R4
IOPIN -240 192 In
FLAG -240 224 +R5
IOPIN -240 224 In
FLAG -240 256 +R6
IOPIN -240 256 In
FLAG -240 288 +R7
IOPIN -240 288 In
FLAG -240 320 +R8
IOPIN -240 320 In
FLAG -240 352 +R9
IOPIN -240 352 In
FLAG -240 -304 -R0
IOPIN -240 -304 In
FLAG -240 -272 -R1
IOPIN -240 -272 In
FLAG -240 -240 -R2
IOPIN -240 -240 In
FLAG -240 -208 -R3
IOPIN -240 -208 In
FLAG -240 -176 -R4
IOPIN -240 -176 In
FLAG -240 -144 -R5
IOPIN -240 -144 In
FLAG -240 -112 -R6
IOPIN -240 -112 In
FLAG -240 -80 -R7
IOPIN -240 -80 In
FLAG -240 -48 -R8
IOPIN -240 -48 In
FLAG -240 -16 -R9
IOPIN -240 -16 In
FLAG -96 208 R+
FLAG 0 -160 R+
FLAG -96 -160 R-
FLAG 0 -192 R-
FLAG 288 240 0
FLAG 240 256 0
FLAG 480 432 0
SYMBOL cap 320 240 R0
SYMATTR InstName C1
SYMATTR Value 10n
SYMBOL bidirectional_switch_pm 400 0 R0
SYMATTR InstName BidirectionalSwitch1
SYMBOL subtractor 64 32 R0
SYMATTR InstName Subtractor1
SYMBOL g 608 -32 R0
SYMATTR InstName G1
SYMATTR Value 3m
SYMBOL invert_adder_10 -432 208 R0
SYMATTR InstName InvertAdderG+
SYMBOL invert_adder_10 -432 -160 R0
SYMATTR InstName InvertAddeG-
SYMBOL softmax_20 -432 800 R0
SYMATTR InstName Softmax
SYMBOL multiplier -128 528 R0
SYMATTR InstName Multiplier0
SYMBOL multiplier -128 640 R0
SYMATTR InstName Multiplier1
SYMBOL multiplier -128 752 R0
SYMATTR InstName Multiplier2
SYMBOL multiplier -128 864 R0
SYMATTR InstName Multiplier3
SYMBOL multiplier -128 976 R0
SYMATTR InstName Multiplier4
SYMBOL multiplier 144 528 R0
SYMATTR InstName Multiplier5
SYMBOL multiplier 144 640 R0
SYMATTR InstName Multiplier6
SYMBOL multiplier 144 752 R0
SYMATTR InstName Multiplier7
SYMBOL multiplier 144 864 R0
SYMATTR InstName Multiplier8
SYMBOL multiplier 144 976 R0
SYMATTR InstName Multiplier9
SYMBOL multiplier 416 528 R0
SYMATTR InstName Multiplier10
SYMBOL multiplier 416 640 R0
SYMATTR InstName Multiplier11
SYMBOL multiplier 416 752 R0
SYMATTR InstName Multiplier12
SYMBOL multiplier 416 864 R0
SYMATTR InstName Multiplier13
SYMBOL multiplier 416 976 R0
SYMATTR InstName Multiplier14
SYMBOL multiplier 688 528 R0
SYMATTR InstName Multiplier15
SYMBOL multiplier 688 640 R0
SYMATTR InstName Multiplier16
SYMBOL multiplier 688 752 R0
SYMATTR InstName Multiplier17
SYMBOL multiplier 688 864 R0
SYMATTR InstName Multiplier18
SYMBOL multiplier 688 976 R0
SYMATTR InstName Multiplier19
SYMBOL bidirectional_switch_pm 400 -208 R0
SYMATTR InstName BidirectionalSwitch2
SYMBOL subtractor 64 -176 R0
SYMATTR InstName Subtractor2
SYMBOL g 608 -240 R0
SYMATTR InstName G2
SYMATTR Value 1µ
SYMBOL invert_adder_10 -160 208 R0
SYMATTR InstName InvertAdderR+
SYMBOL invert_adder_10 -160 -160 R0
SYMATTR InstName InvertAdderR-
SYMBOL e 240 160 M0
SYMATTR InstName E1
SYMATTR Value 1
SYMBOL IdealOpAmp_15 560 336 R0
SYMATTR InstName X1
SYMBOL IdealOpAmp_15 560 176 R0
SYMATTR InstName X2
SYMBOL voltage 480 336 R0
WINDOW 123 0 0 Left 0
WINDOW 39 0 0 Left 0
SYMATTR InstName V1
SYMATTR Value 1
SYMBOL one_minus_v 80 144 M0
SYMATTR InstName 1-V
SYMBOL res 384 208 R0
SYMATTR InstName R1
SYMATTR Value 1T
TEXT -248 1064 Left 2 ;#### Uncomment to set init cond ####\n.ic V(N001)=0.5\n.ic V(V)=0.5\n.ic V(Vbar)=0.5
