Version 4
SHEET 1 1076 680
WIRE 160 -368 144 -368
WIRE 336 -352 288 -352
WIRE 592 -352 480 -352
WIRE -144 -336 -208 -336
WIRE 160 -336 80 -336
WIRE 592 -288 592 -352
WIRE 640 -288 592 -288
WIRE 816 -272 768 -272
WIRE 640 -256 592 -256
WIRE 160 -208 144 -208
WIRE 336 -192 288 -192
WIRE 592 -192 592 -256
WIRE 592 -192 480 -192
WIRE 160 -176 144 -176
WIRE 816 -80 816 -272
WIRE 816 -80 192 -80
WIRE 336 16 336 -16
WIRE 368 16 336 16
WIRE 816 16 672 16
WIRE 672 32 672 16
WIRE 256 48 256 -16
WIRE 368 48 256 48
WIRE 624 48 560 48
WIRE 192 80 192 -80
WIRE 368 80 192 80
WIRE 816 144 816 16
WIRE 816 144 400 144
WIRE 240 192 160 192
WIRE 592 208 544 208
WIRE 240 224 240 192
WIRE 752 224 656 224
WIRE 400 240 400 144
WIRE 400 240 288 240
WIRE 592 240 400 240
WIRE 400 272 400 240
WIRE 448 272 400 272
WIRE 400 288 400 272
WIRE 448 352 400 352
WIRE 400 368 400 352
FLAG 400 368 0
FLAG 752 224 ctrl1
FLAG 256 -16 ctrl1
FLAG -256 -320 dxl
IOPIN -256 -320 In
FLAG 624 96 0
FLAG 672 112 0
FLAG 544 208 0
FLAG 160 192 xl
IOPIN 160 192 Out
FLAG 336 -16 +V
FLAG -256 -272 0
FLAG -208 -256 0
FLAG 144 -368 logxl
FLAG 144 -176 -logld
FLAG 144 -208 logxl
FLAG 240 192 logxl
FLAG -48 48 0
FLAG -48 -32 -logld
FLAG 288 288 0
FLAG 240 304 0
FLAG -144 48 0
FLAG -144 -32 +V
SYMBOL cap 384 288 R0
SYMATTR InstName C1
SYMATTR Value 10n
SYMBOL bidirectional_switch_pm 464 48 R0
SYMATTR InstName BidirectionalSwitch
SYMBOL g 672 16 R0
SYMATTR InstName G1
SYMATTR Value 0.01061µ
SYMBOL g -208 -352 R0
SYMATTR InstName G2
SYMATTR Value 1µ
SYMBOL log_amplifier -32 -336 R0
SYMATTR InstName LogAmp1
SYMBOL voltage -48 -48 R0
WINDOW 123 0 0 Left 0
WINDOW 39 0 0 Left 0
SYMATTR InstName V3
SYMATTR Value 1.89712
SYMBOL adder 224 -192 R0
SYMATTR InstName Adder2
SYMBOL adder_log10 224 -352 R0
SYMATTR InstName Adder1
SYMBOL expamp_shifted 400 -352 R0
SYMATTR InstName Exp_shifted1
SYMBOL expamp_shifted 400 -192 R0
SYMATTR InstName Exp_shifted2
SYMBOL IdealOpAmp_15 624 224 R0
SYMATTR InstName X1
SYMBOL e 240 208 M0
SYMATTR InstName E1
SYMATTR Value 1
SYMBOL voltage -144 -48 R0
WINDOW 123 0 0 Left 0
WINDOW 39 0 0 Left 0
SYMATTR InstName V1
SYMATTR Value 15
SYMBOL subtractor 704 -272 R0
SYMATTR InstName Subtractor
SYMBOL res 432 256 R0
SYMATTR InstName R1
SYMATTR Value 1T
TEXT -24 72 Left 2 ;-log0.15
TEXT 592 -376 Left 2 ;(C+lambda) / xl
TEXT -344 -360 Left 2 ;C+lambda
TEXT -80 -296 Left 2 ;-0.375 log(C+lambda) / log10
TEXT 224 -448 Left 2 ;log(xl) - log(C+lambda)
TEXT 568 -176 Left 2 ;(delta+lambda) / xl
TEXT 320 -296 Left 2 ;30mV * exp(6-Vin/1V)
TEXT 824 112 Left 2 ;5/(0.03*exp(6)) * VT
