Version 4
SHEET 1 1048 680
WIRE 96 -64 96 -96
WIRE 128 -64 96 -64
WIRE 576 -64 432 -64
WIRE 432 -48 432 -64
WIRE 16 -32 16 -96
WIRE 128 -32 16 -32
WIRE 384 -32 320 -32
WIRE 128 0 -48 0
WIRE 576 64 576 -64
WIRE 576 64 160 64
WIRE 64 128 -48 128
WIRE 352 128 304 128
WIRE 64 144 64 128
WIRE 512 144 416 144
WIRE 160 160 160 64
WIRE 160 160 112 160
WIRE 304 160 160 160
WIRE 352 160 304 160
WIRE 160 192 160 160
WIRE 224 192 160 192
WIRE 160 208 160 192
WIRE 224 272 160 272
WIRE 160 288 160 272
WIRE 304 288 304 160
WIRE 352 288 304 288
WIRE 512 304 416 304
WIRE 352 320 304 320
WIRE 304 336 304 320
FLAG 160 288 0
FLAG -64 352 0
FLAG -64 272 1
FLAG 512 144 ctrl1
FLAG 512 304 ctrl2
FLAG 16 -96 ctrl1
FLAG 96 -96 ctrl2
FLAG 304 336 1
FLAG 304 128 0
FLAG -48 0 dxs
IOPIN -48 0 In
FLAG -48 128 xs
IOPIN -48 128 Out
FLAG 384 16 0
FLAG 432 32 0
FLAG 112 208 0
FLAG 64 224 0
SYMBOL cap 144 208 R0
SYMATTR InstName C1
SYMATTR Value 10n
SYMBOL voltage -64 256 R0
WINDOW 123 0 0 Left 0
WINDOW 39 0 0 Left 0
SYMATTR InstName V4
SYMATTR Value 1
SYMBOL bidirectional_switch_pm 224 -32 R0
SYMATTR InstName BidirectionalSwitch
SYMBOL g 432 -64 R0
SYMATTR InstName G1
SYMATTR Value 20µ
SYMBOL e 64 128 M0
SYMATTR InstName E1
SYMATTR Value table(0.001, 0.001, 0.999, 0.999)
SYMBOL IdealOpAmp_15 384 304 R0
SYMATTR InstName X1
SYMBOL IdealOpAmp_15 384 144 R0
SYMATTR InstName X2
SYMBOL res 208 176 R0
SYMATTR InstName R1
SYMATTR Value 1T
